Circuit: * C:\Users\gabry\eletronica1\resources\draft\relatorio4\parte1\Draft.asc

Instance "m:u1:1": Width narrower than recommended for a level 3 MOSFET.
.step vg=2
.step vg=3
.step vg=4
.step vg=5
.step vg=6
.step vg=7
.step vg=8
.step vg=9
.step vg=10

Date: Fri Oct 09 00:47:10 2020
Total elapsed time: 2.625 seconds.

tnom = 27
temp = 27
method = trap
totiter = 900087
traniter = 0
tranpoints = 0
accept = 0
rejected = 0
matrix size = 14
fillins = 3
solver = Normal
Matrix Compiler1: 728 bytes object code size  0.3/0.1/[0.1]
Matrix Compiler2: 1.09 KB object code size  0.1/0.2/[0.1]

