Circuit: * C:\Users\gabry\eletronica1\resources\draft\roteirofinal\circuitoproposto2.asc

Direct Newton iteration for .op point succeeded.

Date: Thu Oct 15 17:44:38 2020
Total elapsed time: 0.365 seconds.

tnom = 27
temp = 27
method = modified trap
totiter = 9072
traniter = 9034
tranpoints = 3606
accept = 2898
rejected = 708
matrix size = 102
fillins = 136
solver = Normal
Thread vector: 13.8/11.7[2] 12.2/4.5[2] 2.3/2.4[1] 0.8/3.2[1]  2592/500
Matrix Compiler1: 15.67 KB object code size  4.6/3.7/[1.4]
Matrix Compiler2: 11.10 KB object code size  3.3/3.4/[1.2]

