Circuit: * C:\Users\gabry\eletronica1\resources\draft\roteirofinal\Draft1.asc

.OP point found by inspection.

Date: Wed Oct 14 16:21:07 2020
Total elapsed time: 0.045 seconds.

tnom = 27
temp = 27
method = modified trap
totiter = 2697
traniter = 2697
tranpoints = 1293
accept = 1233
rejected = 60
matrix size = 9
fillins = 8
solver = Normal
Matrix Compiler1: 884 bytes object code size  0.4/0.1/[0.1]
Matrix Compiler2: 831 bytes object code size  0.1/0.1/[0.1]

