Circuit: * C:\Users\gabry\eletronica1\resources\draft\roteirofinal\filtro.asc

.OP point found by inspection.

Date: Thu Oct 15 01:59:57 2020
Total elapsed time: 0.104 seconds.

tnom = 27
temp = 27
method = modified trap
totiter = 7854
traniter = 7854
tranpoints = 3336
accept = 2716
rejected = 620
matrix size = 19
fillins = 10
solver = Normal
Matrix Compiler1: 1.66 KB object code size  0.6/0.3/[0.2]
Matrix Compiler2: 1.66 KB object code size  0.2/0.3/[0.2]

