Circuit: * C:\Users\gabry\eletronica1\resources\draft\roteirofinal\filtro.asc

Direct Newton iteration for .op point succeeded.

Date: Thu Oct 15 02:29:57 2020
Total elapsed time: 0.451 seconds.

tnom = 27
temp = 27
method = modified trap
totiter = 9120
traniter = 9073
tranpoints = 3643
accept = 2948
rejected = 695
matrix size = 94
fillins = 123
solver = Normal
Thread vector: 243.6/10.9[2] 11.0/28.8[1] 2.5/4.1[1] 0.7/15.5[1]  2592/500
Matrix Compiler1: 14.14 KB object code size  4.7/2.0/[1.6]
Matrix Compiler2: 10.11 KB object code size  1.4/2.3/[1.1]

