Circuit: * C:\Users\gabry\eletronica1\resources\draft\roteirofinal\parte3.asc

Instance "m:u4:1": Width narrower than recommended for a level 3 MOSFET.
Direct Newton iteration failed to find .op point.  (Use ".option noopiter" to skip.)
Starting Gmin stepping
Gmin = 10
Gmin = 1.07374
Gmin = 0.115292
Gmin = 0.0123794
Gmin = 0.00132923
Gmin = 0.000142725
Gmin = 1.5325e-005
Gmin = 1.6455e-006
Gmin = 1.76685e-007
Gmin = 1.89714e-008
Gmin = 2.03704e-009
Gmin = 2.18725e-010
Gmin = 2.34854e-011
Gmin = 2.52173e-012
Gmin = 2.70769e-013
Gmin = 0
Gmin stepping succeeded in finding the operating point.


Date: Thu Oct 15 23:22:51 2020
Total elapsed time: 0.889 seconds.

tnom = 27
temp = 27
method = modified trap
totiter = 10778
traniter = 10299
tranpoints = 4010
accept = 3177
rejected = 833
matrix size = 175
fillins = 225
solver = Normal
Thread vector: 50.8/29.6[4] 14.0/10.9[4] 4.0/4.5[1] 1.6/88.1[1]  2592/500
Matrix Compiler1: 26.75 KB object code size  22.4/8.6/[4.0]
Matrix Compiler2: 19.00 KB object code size  5.1/4.7/[2.3]

