Circuit: * C:\Users\gabry\eletronica1\resources\draft\roteirofinal\parte2.asc

Instance "m:u4:1": Width narrower than recommended for a level 3 MOSFET.
Direct Newton iteration failed to find .op point.  (Use ".option noopiter" to skip.)
Starting Gmin stepping
Gmin = 10
Gmin = 1.07374
Gmin = 0.115292
Gmin = 0.0123794
Gmin = 0.00132923
Gmin = 0.000142725
Gmin = 1.5325e-005
Gmin = 1.6455e-006
Gmin = 1.76685e-007
Gmin = 1.89714e-008
Gmin = 2.03704e-009
Gmin = 2.18725e-010
Gmin = 2.34854e-011
Gmin = 2.52173e-012
Gmin = 2.70769e-013
Gmin = 0
Gmin stepping succeeded in finding the operating point.


Date: Thu Oct 15 23:15:13 2020
Total elapsed time: 0.737 seconds.

tnom = 27
temp = 27
method = modified trap
totiter = 9373
traniter = 8896
tranpoints = 3400
accept = 2668
rejected = 732
matrix size = 175
fillins = 229
solver = Normal
Thread vector: 26.3/19.6[4] 93.3/48.5[4] 4.4/9.2[1] 1.5/43.2[1]  2592/500
Matrix Compiler1: 27.12 KB object code size  16.9/7.2/[3.8]
Matrix Compiler2: 19.06 KB object code size  4.9/4.2/[2.3]

