Circuit: * C:\Users\gabry\eletronica1\resources\draft\relatorio4\parte4\Draft.asc

Instance "m:u1:1": Width narrower than recommended for a level 3 MOSFET.
Direct Newton iteration for .op point succeeded.

Date: Fri Oct 09 03:15:39 2020
Total elapsed time: 0.069 seconds.

tnom = 27
temp = 27
method = modified trap
totiter = 6073
traniter = 6056
tranpoints = 2738
accept = 2397
rejected = 341
matrix size = 15
fillins = 5
solver = Normal
Matrix Compiler1: 934 bytes object code size  0.4/0.1/[0.1]
Matrix Compiler2: off  [0.1]/0.2/0.2

